formic_acid_dimer.log
 OpenBabel08262222383D

 10  8  0  0  0  0  0  0  0  0999 V2000
    2.1240   -0.2228    0.0022 C   0  0  0  0  0  0  0  0  0  0  0  0
    1.2576   -1.0953   -0.0377 O   0  0  0  0  0  0  0  0  0  0  0  0
    1.7142    1.0708    0.0180 O   0  0  0  0  0  0  0  0  0  0  0  0
    3.2230   -0.3139    0.0284 H   0  0  0  0  0  0  0  0  0  0  0  0
    0.7447    1.1225   -0.0057 H   0  0  0  0  0  0  0  0  0  0  0  0
   -2.1390    0.1827   -0.0175 C   0  0  0  0  0  0  0  0  0  0  0  0
   -1.3535    1.1295   -0.0073 O   0  0  0  0  0  0  0  0  0  0  0  0
   -1.6170   -1.0687    0.0343 O   0  0  0  0  0  0  0  0  0  0  0  0
   -3.2411    0.1749   -0.0635 H   0  0  0  0  0  0  0  0  0  0  0  0
   -0.6473   -1.0332    0.0741 H   0  0  0  0  0  0  0  0  0  0  0  0
  1  3  1  0  0  0  0
  1  4  1  0  0  0  0
  2  1  2  0  0  0  0
  5  3  1  0  0  0  0
  6  7  2  0  0  0  0
  6  8  1  0  0  0  0
  8 10  1  0  0  0  0
  9  6  1  0  0  0  0
M  END
$$$$
